24
	Energy:      25.6180394
C         -5.75038        1.84621       -0.16251
C         -5.71875        0.47030       -0.40491
C         -4.51135       -0.15464       -0.72834
C         -3.33329        0.59486       -0.81004
C         -3.35872        1.98239       -0.56675
C         -4.57471        2.59933       -0.24316
N         -2.18546        2.77794       -0.63967
N         -1.07320        2.28892       -0.92259
C          0.10005        3.08448       -0.99554
C          0.07458        4.47205       -0.75252
C          1.25263        5.22156       -0.83425
C          2.46008        4.59658       -1.15744
C          2.49175        3.22061       -1.39957
C          1.31609        2.46749       -1.31890
H         -4.60981        3.66498       -0.05353
H         -6.68591        2.32949        0.08793
H         -4.48813       -1.22041       -0.91587
H         -6.62938       -0.11134       -0.34215
H         -2.40842        0.09188       -1.06196
H         -0.85033        4.97506       -0.50079
H          3.37070        5.17822       -1.22022
H          1.22937        6.28736       -0.64693
H          3.42732        2.73731       -1.64983
H          1.35122        1.40181       -1.50832
