8
	Energy:       0.3724028
C         -1.32647        1.59828       -0.00000
C          0.20973        1.55803       -0.00000
H          0.60103        1.95283       -0.94028
H          0.56379        0.53164        0.11947
H          0.60645        2.15969        0.82081
H         -1.72318        0.99661       -0.82081
H         -1.68053        2.62467       -0.11947
H         -1.71776        1.20347        0.94028
