23
	Energy:       1.9981411
C         -3.18252       -1.64687       -0.01242
C         -1.90408       -0.79027       -0.06422
H         -4.06725       -1.00868       -0.06756
H         -3.22786       -2.21633        0.91884
H         -3.21197       -2.34721       -0.85041
C         -0.63695       -1.66795        0.00986
H         -1.91180       -0.08232        0.76830
H         -1.89730       -0.21029       -0.99046
C          0.64307       -0.80724       -0.03885
H         -0.63369       -2.37414       -0.82452
H         -0.65003       -2.24977        0.93519
C          1.91032       -1.68538        0.02913
H          0.64137       -0.10395        0.79796
H          0.65425       -0.22232       -0.96222
C          3.19025       -0.82445       -0.01584
H          1.91315       -2.38673       -0.80933
H          1.89836       -2.27254        0.95109
C          4.45598       -1.69903        0.04652
H          4.49041       -2.38871       -0.80009
H          4.47765       -2.28118        0.97076
H          5.35003       -1.07233        0.01486
H          3.19435       -0.12563        0.82439
H          3.20604       -0.23454       -0.93567
