26
	Energy:       2.2882213
C         -4.22593       -0.00146       -0.01276
C         -2.89852        0.77788        0.02532
H         -5.07091        0.68988        0.02104
H         -4.30124       -0.67727        0.84234
H         -4.30126       -0.59064       -0.92970
C         -1.68619       -0.17579       -0.02132
H         -2.86044        1.37860        0.93748
H         -2.86046        1.46471       -0.82389
C         -0.35695        0.60733        0.01692
H         -1.72964       -0.77612       -0.93381
H         -1.72960       -0.86224        0.82828
C          0.85542       -0.34639       -0.02975
H         -0.31364        1.20761        0.92943
H         -0.31371        1.29376       -0.83267
C          2.18465        0.43673        0.00845
H          0.81209       -0.94669       -0.94224
H          0.81219       -1.03281        0.81986
C          3.39699       -0.51693       -0.03826
H          2.22814        1.03705        0.92094
H          2.22803        1.12319       -0.84114
C          4.72439        0.26240       -0.00027
H          4.79979        0.85159        0.91666
H          4.79964        0.93821       -0.85538
H          5.56937       -0.42893       -0.03413
H          3.35885       -1.11767       -0.95041
H          3.35898       -1.20376        0.81096
