11
	Energy:       0.8384353
C         -2.31586       -0.09187       -0.00370
C         -0.80184        0.18704       -0.03107
H         -2.80863        0.36921       -0.86289
H         -2.76486        0.30561        0.90956
H         -2.50256       -1.16756       -0.03768
C         -0.50730        1.69762        0.01585
H         -0.95375        2.20453       -0.84285
H          0.57060        1.87320       -0.00446
H         -0.90999        2.14094        0.92960
H         -0.36965       -0.23984       -0.93927
H         -0.32616       -0.30302        0.82181
